case_study/opendss_scripts/LVTestCase/di_col_Curr_Elem.Txt

CIRCUIT ELEMENT CURRENTS

(Currents into element from indicated bus)

Power Delivery Elements

  Bus     Phase    Magnitude, A     Angle      (Real)   +j  (Imag)

ELEMENT = "Vsource.SOURCE"
SOURCEBUS     1          0.19952 /_  161.8 =   -0.18952 +j  0.062358
SOURCEBUS     2          0.19952 /_   41.8 =    0.14876 +j   0.13295
SOURCEBUS     3          0.19952 /_  -78.2 =   0.040756 +j  -0.19531
------------
SOURCEBUS     0          0.19952 /_  -18.2 =    0.18952 +j -0.062358
SOURCEBUS     0          0.19952 /_ -138.2 =   -0.14876 +j  -0.13295
SOURCEBUS     0          0.19952 /_  101.8 =  -0.040756 +j   0.19531

ELEMENT = "Transformer.TR1"
SOURCEBUS     1          0.19952 /_  -18.2 =    0.18952 +j -0.062358
SOURCEBUS     2          0.19952 /_ -138.2 =   -0.14876 +j  -0.13295
SOURCEBUS     3          0.19952 /_  101.8 =  -0.040756 +j   0.19531
SOURCEBUS     0                0 /_    0.0 =          0 +j         0
------------
1             1           5.4863 /_  131.8 =    -3.6566 +j    4.0901
1             2           5.4863 /_   11.8 =     5.3705 +j    1.1217
1             3           5.4863 /_ -108.2 =    -1.7138 +j   -5.2118
1             0      1.0133E-009 /_  -47.5 =  6.8394E-010 +j -7.476E-010

ELEMENT = "Line.LINE1"
1             1           5.4863 /_  -48.2 =     3.6566 +j   -4.0901
1             2           5.4863 /_ -168.2 =    -5.3705 +j   -1.1217
1             3           5.4863 /_   71.8 =     1.7138 +j    5.2118
------------
2             1           5.4863 /_  131.8 =    -3.6566 +j    4.0901
2             2           5.4863 /_   11.8 =     5.3705 +j    1.1217
2             3           5.4863 /_ -108.2 =    -1.7138 +j   -5.2118

ELEMENT = "Line.LINE2"
2             1           3.0119 /_  -48.2 =     2.0074 +j   -2.2454
2             2           3.0119 /_ -168.2 =    -2.9483 +j   -0.6158
2             3           3.0119 /_   71.8 =    0.94085 +j    2.8612
------------
3             1           3.0119 /_  131.8 =    -2.0074 +j    2.2454
3             2           3.0119 /_   11.8 =     2.9483 +j    0.6158
3             3           3.0119 /_ -108.2 =   -0.94085 +j   -2.8612

ELEMENT = "Line.LINE3"
3             1           3.0119 /_  -48.2 =     2.0074 +j   -2.2454
3             2           3.0119 /_ -168.2 =    -2.9483 +j   -0.6158
3             3           3.0119 /_   71.8 =    0.94085 +j    2.8612
------------
10            1           3.0119 /_  131.8 =    -2.0074 +j    2.2454
10            2           3.0119 /_   11.8 =     2.9483 +j    0.6158
10            3           3.0119 /_ -108.2 =   -0.94085 +j   -2.8612

ELEMENT = "Line.LINE4"
10            1           2.5008 /_  -48.2 =     1.6668 +j   -1.8644
10            2           2.5008 /_ -168.2 =     -2.448 +j  -0.51132
10            3           2.5008 /_   71.8 =    0.78119 +j    2.3757
------------
11            1           2.5008 /_  131.8 =    -1.6668 +j    1.8644
11            2           2.5008 /_   11.8 =      2.448 +j   0.51132
11            3           2.5008 /_ -108.2 =   -0.78119 +j   -2.3757

ELEMENT = "Line.LINE5"
11            1           1.9593 /_  -48.2 =     1.3059 +j   -1.4607
11            2           1.9593 /_ -168.2 =    -1.9179 +j  -0.40061
11            3           1.9593 /_   71.8 =    0.61202 +j    1.8613
------------
12            1           1.9593 /_  131.8 =    -1.3059 +j    1.4607
12            2           1.9593 /_   11.8 =     1.9179 +j   0.40061
12            3           1.9593 /_ -108.2 =   -0.61202 +j   -1.8613

ELEMENT = "Line.LINE6"
12            1           1.3178 /_  -48.2 =    0.87834 +j  -0.98243
12            2           1.3178 /_ -168.2 =      -1.29 +j  -0.26945
12            3           1.3178 /_   71.8 =    0.41164 +j    1.2519
------------
13            1           1.3178 /_  131.8 =   -0.87834 +j   0.98243
13            2           1.3178 /_   11.8 =       1.29 +j   0.26945
13            3           1.3178 /_ -108.2 =   -0.41164 +j   -1.2519

ELEMENT = "Line.LINE7"
13            1          0.50251 /_  -48.2 =    0.33493 +j  -0.37462
13            2          0.50251 /_ -168.2 =   -0.49189 +j  -0.10275
13            3          0.50251 /_   71.8 =    0.15697 +j   0.47737
------------
14            1          0.50251 /_  131.8 =   -0.33493 +j   0.37462
14            2          0.50251 /_   11.8 =    0.49189 +j   0.10275
14            3          0.50251 /_ -108.2 =   -0.15697 +j  -0.47737

ELEMENT = "Line.LINE8"
10            1          0.18532 /_  -48.2 =    0.12351 +j  -0.13816
10            2          0.18532 /_ -168.2 =    -0.1814 +j -0.037883
10            3          0.18532 /_   71.8 =   0.057893 +j   0.17604
------------
100           1          0.18532 /_  131.8 =   -0.12351 +j   0.13816
100           2          0.18532 /_   11.8 =     0.1814 +j  0.037883
100           3          0.18532 /_ -108.2 =  -0.057893 +j  -0.17604

ELEMENT = "Line.LINE9"
11            1          0.20271 /_  -48.2 =     0.1351 +j  -0.15112
11            2          0.20271 /_ -168.2 =   -0.19843 +j -0.041442
11            3          0.20271 /_   71.8 =   0.063324 +j   0.19256
------------
110           1          0.20271 /_  131.8 =    -0.1351 +j   0.15112
110           2          0.20271 /_   11.8 =    0.19843 +j  0.041442
110           3          0.20271 /_ -108.2 =  -0.063324 +j  -0.19256

ELEMENT = "Line.LINE10"
12            1          0.44311 /_  -48.2 =    0.29533 +j  -0.33034
12            2          0.44311 /_ -168.2 =   -0.43375 +j -0.090597
12            3          0.44311 /_   71.8 =    0.13841 +j   0.42093
------------
120           1          0.44311 /_  131.8 =   -0.29533 +j   0.33034
120           2          0.44311 /_   11.8 =    0.43375 +j  0.090597
120           3          0.44311 /_ -108.2 =   -0.13841 +j  -0.42093

ELEMENT = "Line.LINE11"
13            1          0.68788 /_  -48.2 =    0.45848 +j  -0.51281
13            2          0.68788 /_ -168.2 =   -0.67335 +j  -0.14065
13            3          0.68788 /_   71.8 =    0.21487 +j   0.65346
------------
130           1          0.68788 /_  131.8 =   -0.45848 +j   0.51281
130           2          0.68788 /_   11.8 =    0.67335 +j   0.14065
130           3          0.68788 /_ -108.2 =   -0.21487 +j  -0.65346

ELEMENT = "Line.LINE12"
14            1          0.09268 /_  -48.2 =   0.061771 +j -0.069093
14            2          0.09268 /_ -168.2 =  -0.090722 +j -0.018949
14            3          0.09268 /_   71.8 =    0.02895 +j  0.088042
------------
140           1          0.09268 /_  131.8 =  -0.061771 +j  0.069093
140           2          0.09268 /_   11.8 =   0.090722 +j  0.018949
140           3          0.09268 /_ -108.2 =   -0.02895 +j -0.088042

ELEMENT = "Line.LINE13"
10            1          0.32575 /_  -48.2 =    0.21711 +j  -0.24286
10            2          0.32575 /_ -168.2 =   -0.31888 +j -0.066594
10            3          0.32575 /_   71.8 =    0.10177 +j   0.30945
------------
101           1          0.32575 /_  131.8 =   -0.21711 +j   0.24286
101           2          0.32575 /_   11.8 =    0.31888 +j  0.066594
101           3          0.32575 /_ -108.2 =   -0.10177 +j  -0.30945

ELEMENT = "Line.LINE14"
11            1          0.33882 /_  -48.2 =    0.22582 +j  -0.25259
11            2          0.33882 /_ -168.2 =   -0.33166 +j -0.069269
11            3          0.33882 /_   71.8 =    0.10584 +j   0.32186
------------
111           1          0.33882 /_  131.8 =   -0.22582 +j   0.25259
111           2          0.33882 /_   11.8 =    0.33166 +j  0.069269
111           3          0.33882 /_ -108.2 =   -0.10584 +j  -0.32186

ELEMENT = "Line.LINE15"
12            1          0.19838 /_  -48.2 =    0.13222 +j  -0.14789
12            2          0.19838 /_ -168.2 =   -0.19419 +j -0.040559
12            3          0.19838 /_   71.8 =   0.061969 +j   0.18845
------------
121           1          0.19838 /_  131.8 =   -0.13222 +j   0.14789
121           2          0.19838 /_   11.8 =    0.19419 +j  0.040559
121           3          0.19838 /_ -108.2 =  -0.061969 +j  -0.18845

ELEMENT = "Line.LINE16"
13            1          0.12743 /_  -48.2 =   0.084934 +j -0.095001
13            2          0.12743 /_ -168.2 =   -0.12474 +j -0.026055
13            3          0.12743 /_   71.8 =   0.039806 +j   0.12106
------------
131           1          0.12743 /_  131.8 =  -0.084934 +j  0.095001
131           2          0.12743 /_   11.8 =    0.12474 +j  0.026055
131           3          0.12743 /_ -108.2 =  -0.039806 +j  -0.12106

ELEMENT = "Line.LINE17"
14            1          0.40983 /_  -48.2 =    0.27316 +j  -0.30553
14            2          0.40983 /_ -168.2 =   -0.40117 +j -0.083797
14            3          0.40983 /_   71.8 =    0.12802 +j   0.38932
------------
141           1          0.40983 /_  131.8 =   -0.27316 +j   0.30553
141           2          0.40983 /_   11.8 =    0.40117 +j  0.083797
141           3          0.40983 /_ -108.2 =   -0.12802 +j  -0.38932

ELEMENT = "Line.LINE18"
2             1           2.4744 /_  -48.2 =     1.6492 +j   -1.8447
2             2           2.4744 /_ -168.2 =    -2.4222 +j  -0.50587
2             3           2.4744 /_   71.8 =    0.77299 +j    2.3506
------------
4             1           2.4744 /_  131.8 =    -1.6492 +j    1.8447
4             2           2.4744 /_   11.8 =     2.4222 +j   0.50587
4             3           2.4744 /_ -108.2 =   -0.77299 +j   -2.3506

ELEMENT = "Line.LINE19"
4             1           2.4744 /_  -48.2 =     1.6492 +j   -1.8447
4             2           2.4744 /_ -168.2 =    -2.4222 +j  -0.50587
4             3           2.4744 /_   71.8 =    0.77299 +j    2.3506
------------
20            1           2.4744 /_  131.8 =    -1.6492 +j    1.8447
20            2           2.4744 /_   11.8 =     2.4222 +j   0.50587
20            3           2.4744 /_ -108.2 =   -0.77299 +j   -2.3506

ELEMENT = "Line.LINE20"
20            1           2.0749 /_  -48.2 =     1.3829 +j   -1.5468
20            2           2.0749 /_ -168.2 =     -2.031 +j  -0.42419
20            3           2.0749 /_   71.8 =    0.64816 +j     1.971
------------
21            1           2.0749 /_  131.8 =    -1.3829 +j    1.5468
21            2           2.0749 /_   11.8 =      2.031 +j   0.42419
21            3           2.0749 /_ -108.2 =   -0.64816 +j    -1.971

ELEMENT = "Line.LINE21"
21            1            1.364 /_  -48.2 =    0.90908 +j   -1.0169
21            2            1.364 /_ -168.2 =    -1.3352 +j  -0.27886
21            3            1.364 /_   71.8 =    0.42608 +j    1.2957
------------
22            1            1.364 /_  131.8 =   -0.90908 +j    1.0169
22            2            1.364 /_   11.8 =     1.3352 +j   0.27886
22            3            1.364 /_ -108.2 =   -0.42608 +j   -1.2957

ELEMENT = "Line.LINE22"
22            1          0.98028 /_  -48.2 =    0.65335 +j  -0.73081
22            2          0.98028 /_ -168.2 =   -0.95957 +j  -0.20042
22            3          0.98028 /_   71.8 =    0.30622 +j   0.93122
------------
23            1          0.98028 /_  131.8 =   -0.65335 +j   0.73081
23            2          0.98028 /_   11.8 =    0.95957 +j   0.20042
23            3          0.98028 /_ -108.2 =   -0.30622 +j  -0.93122

ELEMENT = "Line.LINE23"
23            1          0.37937 /_  -48.2 =    0.25285 +j  -0.28282
23            2          0.37937 /_ -168.2 =   -0.37136 +j -0.077561
23            3          0.37937 /_   71.8 =    0.11851 +j   0.36038
------------
24            1          0.37937 /_  131.8 =   -0.25285 +j   0.28282
24            2          0.37937 /_   11.8 =    0.37136 +j  0.077561
24            3          0.37937 /_ -108.2 =   -0.11851 +j  -0.36038

ELEMENT = "Line.LINE24"
20            1          0.24611 /_  -48.2 =    0.16403 +j  -0.18348
20            2          0.24611 /_ -168.2 =   -0.24091 +j  -0.05031
20            3          0.24611 /_   71.8 =   0.076888 +j   0.23379
------------
200           1          0.24611 /_  131.8 =   -0.16403 +j   0.18348
200           2          0.24611 /_   11.8 =    0.24091 +j   0.05031
200           3          0.24611 /_ -108.2 =  -0.076888 +j  -0.23379

ELEMENT = "Line.LINE25"
21            1          0.56322 /_  -48.2 =    0.37538 +j  -0.41989
21            2          0.56322 /_ -168.2 =   -0.55133 +j  -0.11514
21            3          0.56322 /_   71.8 =    0.17595 +j   0.53503
------------
210           1          0.56322 /_  131.8 =   -0.37538 +j   0.41989
210           2          0.56322 /_   11.8 =    0.55133 +j   0.11514
210           3          0.56322 /_ -108.2 =   -0.17595 +j  -0.53503

ELEMENT = "Line.LINE26"
22            1          0.27221 /_  -48.2 =    0.18142 +j  -0.20293
22            2          0.27221 /_ -168.2 =   -0.26646 +j  -0.05565
22            3          0.27221 /_   71.8 =   0.085035 +j   0.25858
------------
220           1          0.27221 /_  131.8 =   -0.18142 +j   0.20293
220           2          0.27221 /_   11.8 =    0.26646 +j   0.05565
220           3          0.27221 /_ -108.2 =  -0.085035 +j  -0.25858

ELEMENT = "Line.LINE27"
23            1          0.18099 /_  -48.2 =    0.12063 +j  -0.13493
23            2          0.18099 /_ -168.2 =   -0.17717 +j -0.037003
23            3          0.18099 /_   71.8 =    0.05654 +j   0.17194
------------
230           1          0.18099 /_  131.8 =   -0.12063 +j   0.13493
230           2          0.18099 /_   11.8 =    0.17717 +j  0.037003
230           3          0.18099 /_ -108.2 =   -0.05654 +j  -0.17194

ELEMENT = "Line.LINE28"
24            1          0.15493 /_  -48.2 =    0.10326 +j   -0.1155
24            2          0.15493 /_ -168.2 =   -0.15166 +j -0.031675
24            3          0.15493 /_   71.8 =   0.048398 +j   0.14718
------------
240           1          0.15493 /_  131.8 =   -0.10326 +j    0.1155
240           2          0.15493 /_   11.8 =    0.15166 +j  0.031675
240           3          0.15493 /_ -108.2 =  -0.048398 +j  -0.14718

ELEMENT = "Line.LINE29"
20            1          0.15346 /_  -48.2 =    0.10227 +j  -0.11441
20            2          0.15346 /_ -168.2 =   -0.15022 +j -0.031369
20            3          0.15346 /_   71.8 =   0.047942 +j   0.14578
------------
201           1          0.15346 /_  131.8 =   -0.10227 +j   0.11441
201           2          0.15346 /_   11.8 =    0.15022 +j  0.031369
201           3          0.15346 /_ -108.2 =  -0.047942 +j  -0.14578

ELEMENT = "Line.LINE30"
21            1          0.14768 /_  -48.2 =   0.098424 +j   -0.1101
21            2          0.14768 /_ -168.2 =   -0.14456 +j -0.030189
21            3          0.14768 /_   71.8 =   0.046134 +j   0.14029
------------
211           1          0.14768 /_  131.8 =  -0.098424 +j    0.1101
211           2          0.14768 /_   11.8 =    0.14456 +j  0.030189
211           3          0.14768 /_ -108.2 =  -0.046134 +j  -0.14029

ELEMENT = "Line.LINE31"
22            1          0.11149 /_  -48.2 =   0.074305 +j -0.083116
22            2          0.11149 /_ -168.2 =   -0.10913 +j -0.022792
22            3          0.11149 /_   71.8 =   0.034828 +j   0.10591
------------
221           1          0.11149 /_  131.8 =  -0.074305 +j  0.083116
221           2          0.11149 /_   11.8 =    0.10913 +j  0.022792
221           3          0.11149 /_ -108.2 =  -0.034828 +j  -0.10591

ELEMENT = "Line.LINE32"
23            1          0.41992 /_  -48.2 =    0.27987 +j  -0.31305
23            2          0.41992 /_ -168.2 =   -0.41105 +j -0.085851
23            3          0.41992 /_   71.8 =    0.13117 +j    0.3989
------------
231           1          0.41992 /_  131.8 =   -0.27987 +j   0.31305
231           2          0.41992 /_   11.8 =    0.41105 +j  0.085851
231           3          0.41992 /_ -108.2 =   -0.13117 +j   -0.3989

ELEMENT = "Line.LINE33"
24            1          0.22444 /_  -48.2 =    0.14959 +j  -0.16732
24            2          0.22444 /_ -168.2 =    -0.2197 +j -0.045885
24            3          0.22444 /_   71.8 =    0.07011 +j   0.21321
------------
241           1          0.22444 /_  131.8 =   -0.14959 +j   0.16732
241           2          0.22444 /_   11.8 =     0.2197 +j  0.045885
241           3          0.22444 /_ -108.2 =   -0.07011 +j  -0.21321

= = = = = = = = = = = = = = = = = = =  = = = = = = = = = = =  = =

Power Conversion Elements

  Bus     Phase    Magnitude, A     Angle      (Real)   +j  (Imag)

ELEMENT = "Load.LOAD1"
100           1          0.18532 /_  -48.2 =    0.12351 +j  -0.13816
100           2          0.18532 /_ -168.2 =    -0.1814 +j -0.037883
100           3          0.18532 /_   71.8 =   0.057893 +j   0.17604
100           0      3.6185E-011 /_  131.8 =  -2.4113E-011 +j 2.698E-011

ELEMENT = "Load.LOAD2"
110           1          0.20271 /_  -48.2 =     0.1351 +j  -0.15112
110           2          0.20271 /_ -168.2 =   -0.19843 +j -0.041442
110           3          0.20271 /_   71.8 =   0.063324 +j   0.19256
110           0      3.9585E-011 /_  131.8 =  -2.638E-011 +j 2.9514E-011

ELEMENT = "Load.LOAD3"
120           1          0.44311 /_  -48.2 =    0.29533 +j  -0.33034
120           2          0.44311 /_ -168.2 =   -0.43375 +j -0.090597
120           3          0.44311 /_   71.8 =    0.13841 +j   0.42093
120           0      8.6539E-011 /_  131.8 =  -5.7673E-011 +j 6.452E-011

ELEMENT = "Load.LOAD4"
130           1          0.68788 /_  -48.2 =    0.45848 +j  -0.51281
130           2          0.68788 /_ -168.2 =   -0.67335 +j  -0.14065
130           3          0.68788 /_   71.8 =    0.21487 +j   0.65346
130           0      1.3435E-010 /_  131.8 =  -8.9541E-011 +j 1.0017E-010

ELEMENT = "Load.LOAD5"
140           1          0.09268 /_  -48.2 =   0.061772 +j -0.069093
140           2          0.09268 /_ -168.2 =  -0.090722 +j -0.018949
140           3          0.09268 /_   71.8 =    0.02895 +j  0.088042
140           0      1.8101E-011 /_  131.8 =  -1.2063E-011 +j 1.3495E-011

ELEMENT = "Load.LOAD6"
101           1          0.32575 /_  -48.2 =    0.21711 +j  -0.24286
101           2          0.32575 /_ -168.2 =   -0.31888 +j -0.066594
101           3          0.32575 /_   71.8 =    0.10177 +j   0.30945
101           0      6.3609E-011 /_  131.8 =  -4.2388E-011 +j 4.7427E-011

ELEMENT = "Load.LOAD7"
111           1          0.33882 /_  -48.2 =    0.22582 +j  -0.25259
111           2          0.33882 /_ -168.2 =   -0.33166 +j -0.069269
111           3          0.33882 /_   71.8 =    0.10584 +j   0.32186
111           0      6.6166E-011 /_  131.8 =  -4.4094E-011 +j 4.9332E-011

ELEMENT = "Load.LOAD8"
121           1          0.19838 /_  -48.2 =    0.13222 +j  -0.14789
121           2          0.19838 /_ -168.2 =   -0.19419 +j -0.040559
121           3          0.19838 /_   71.8 =   0.061969 +j   0.18845
121           0      3.8743E-011 /_  131.8 =  -2.5819E-011 +j 2.8886E-011

ELEMENT = "Load.LOAD9"
131           1          0.12743 /_  -48.2 =   0.084934 +j -0.095001
131           2          0.12743 /_ -168.2 =   -0.12474 +j -0.026055
131           3          0.12743 /_   71.8 =   0.039806 +j   0.12106
131           0      2.4888E-011 /_  131.8 =  -1.6586E-011 +j 1.8556E-011

ELEMENT = "Load.LOAD10"
141           1          0.40983 /_  -48.2 =    0.27316 +j  -0.30553
141           2          0.40983 /_ -168.2 =   -0.40117 +j -0.083797
141           3          0.40983 /_   71.8 =    0.12802 +j   0.38932
141           0      8.0045E-011 /_  131.8 =  -5.3347E-011 +j 5.9677E-011

ELEMENT = "Load.LOAD11"
200           1          0.24611 /_  -48.2 =    0.16403 +j  -0.18348
200           2          0.24611 /_ -168.2 =   -0.24091 +j  -0.05031
200           3          0.24611 /_   71.8 =   0.076888 +j   0.23379
200           0      4.8053E-011 /_  131.8 =  -3.2022E-011 +j 3.5829E-011

ELEMENT = "Load.LOAD12"
210           1          0.56322 /_  -48.2 =    0.37538 +j  -0.41989
210           2          0.56322 /_ -168.2 =   -0.55133 +j  -0.11514
210           3          0.56322 /_   71.8 =    0.17595 +j   0.53504
210           0      1.0998E-010 /_  131.8 =  -7.3292E-011 +j 8.2001E-011

ELEMENT = "Load.LOAD13"
220           1          0.27221 /_  -48.2 =    0.18142 +j  -0.20293
220           2          0.27221 /_ -168.2 =   -0.26646 +j  -0.05565
220           3          0.27221 /_   71.8 =   0.085035 +j   0.25858
220           0      5.3156E-011 /_  131.8 =  -3.5424E-011 +j 3.9632E-011

ELEMENT = "Load.LOAD14"
230           1          0.18099 /_  -48.2 =    0.12063 +j  -0.13493
230           2          0.18099 /_ -168.2 =   -0.17717 +j -0.037003
230           3          0.18099 /_   71.8 =    0.05654 +j   0.17194
230           0      3.5345E-011 /_  131.8 =  -2.3555E-011 +j 2.6352E-011

ELEMENT = "Load.LOAD15"
240           1          0.15493 /_  -48.2 =    0.10326 +j   -0.1155
240           2          0.15493 /_ -168.2 =   -0.15166 +j -0.031675
240           3          0.15493 /_   71.8 =   0.048398 +j   0.14718
240           0      3.0256E-011 /_  131.8 =  -2.0163E-011 +j 2.2558E-011

ELEMENT = "Load.LOAD16"
201           1          0.15346 /_  -48.2 =    0.10227 +j  -0.11441
201           2          0.15346 /_ -168.2 =   -0.15022 +j -0.031369
201           3          0.15346 /_   71.8 =   0.047942 +j   0.14578
201           0      2.9962E-011 /_  131.8 =  -1.9966E-011 +j 2.234E-011

ELEMENT = "Load.LOAD17"
211           1          0.14768 /_  -48.2 =   0.098424 +j   -0.1101
211           2          0.14768 /_ -168.2 =   -0.14456 +j  -0.03019
211           3          0.14768 /_   71.8 =   0.046134 +j   0.14029
211           0      2.8836E-011 /_  131.8 =  -1.9216E-011 +j 2.15E-011

ELEMENT = "Load.LOAD18"
221           1          0.11149 /_  -48.2 =   0.074305 +j -0.083116
221           2          0.11149 /_ -168.2 =   -0.10913 +j -0.022792
221           3          0.11149 /_   71.8 =   0.034828 +j   0.10591
221           0      2.1771E-011 /_  131.8 =  -1.4508E-011 +j 1.6232E-011

ELEMENT = "Load.LOAD19"
231           1          0.41992 /_  -48.2 =    0.27987 +j  -0.31305
231           2          0.41992 /_ -168.2 =   -0.41105 +j -0.085851
231           3          0.41992 /_   71.8 =    0.13117 +j    0.3989
231           0      8.2004E-011 /_  131.8 =  -5.465E-011 +j 6.1139E-011

ELEMENT = "Load.LOAD20"
241           1          0.22444 /_  -48.2 =    0.14959 +j  -0.16732
241           2          0.22444 /_ -168.2 =    -0.2197 +j -0.045886
241           3          0.22444 /_   71.8 =    0.07011 +j   0.21321
241           0      4.3829E-011 /_  131.8 =  -2.9209E-011 +j 3.2678E-011

